data_CoBDP_template_expanded
_audit_creation_date              2015-10-15
_audit_creation_method            'Materials Studio'
_symmetry_space_group_name_H-M    'P1'
_symmetry_Int_Tables_number       1
_symmetry_cell_setting            triclinic
loop_
_symmetry_equiv_pos_as_xyz
  x,y,z
_cell_length_a                    19.3000
_cell_length_b                    19.3078
_cell_length_c                    6.9826
_cell_angle_alpha                 90.0000
_cell_angle_beta                  97.3670
_cell_angle_gamma                 90.0000
loop_
_atom_site_label
_atom_site_type_symbol
_atom_site_fract_x
_atom_site_fract_y
_atom_site_fract_z
_atom_site_charge
C1     C     0.38217   0.10509   0.64899   0.0 
C2     C     0.11783   0.39491   0.35099   0.0
C3     C     0.39700   0.13546   0.35323   0.0
C4     C     0.10300   0.36454   0.64675   0.0
C5     C     0.36104   0.15016   0.50348   0.0
C6     C     0.13896   0.34984   0.49650   0.0
C7     C     0.30748   0.20624   0.50793   0.0
C8     C     0.19252   0.29376   0.49206   0.0
C9     C     0.21489   0.25746   0.66057   0.0
C10    C     0.28511   0.24254   0.33941   0.0
C11    C     0.27237   0.21369   0.66851   0.0
C12    C     0.22763   0.28631   0.33148   0.0
N13    N     0.43118   0.06254   0.58867   0.0
N14    N     0.06881   0.43746   0.41131   0.0
N15    N     0.44035   0.08130   0.40588   0.0
N16    N     0.05965   0.41870   0.59410   0.0
H17    H     0.36560   0.10360   0.77130   0.0
H18    H     0.13440   0.39640   0.22868   0.0
H19    H     0.39260   0.15890   0.23266   0.0
H20    H     0.10740   0.34110   0.76732   0.0
H21    H     0.19089   0.26255   0.77032   0.0
H22    H     0.30911   0.23745   0.22966   0.0
H23    H     0.28766   0.18888   0.78368   0.0
H24    H     0.21234   0.31112   0.21631   0.0
C25    C     0.38217   0.89491   0.14899   0.0
C26    C     0.11783   0.60509   0.85099   0.0
C27    C     0.39700   0.86454   0.85323   0.0
C28    C     0.10300   0.63546   0.14675   0.0
C29    C     0.36104   0.84984   0.00348   0.0
C30    C     0.13896   0.65016   0.99650   0.0
C31    C     0.30748   0.79376   0.00793   0.0
C32    C     0.19252   0.70624   0.99206   0.0
C33    C     0.21489   0.74254   0.16057   0.0
C34    C     0.28511   0.75746   0.83941   0.0
C35    C     0.27237   0.78631   0.16851   0.0
C36    C     0.22763   0.71369   0.83148   0.0
N37    N     0.43118   0.93746   0.08867   0.0
N38    N     0.06881   0.56254   0.91131   0.0
N39    N     0.44035   0.91870   0.90588   0.0
N40    N     0.05965   0.58130   0.09410   0.0
H41    H     0.36560   0.89640   0.27130   0.0
H42    H     0.13440   0.60360   0.72868   0.0
H43    H     0.39260   0.84110   0.73266   0.0
H44    H     0.10740   0.65890   0.26732   0.0
H45    H     0.19089   0.73745   0.27032   0.0
H46    H     0.30911   0.76255   0.72966   0.0
H47    H     0.28766   0.81112   0.28368   0.0
H48    H     0.21234   0.68888   0.71631   0.0
C49    C     0.88217   0.60509   0.64899   0.0
C50    C     0.61783   0.89491   0.35099   0.0
C51    C     0.89700   0.63546   0.35323   0.0
C52    C     0.60300   0.86454   0.64675   0.0
C53    C     0.86104   0.65016   0.50348   0.0
C54    C     0.63896   0.84984   0.49650   0.0
C55    C     0.80748   0.70624   0.50793   0.0
C56    C     0.69252   0.79376   0.49206   0.0
C57    C     0.71489   0.75746   0.66057   0.0
C58    C     0.78511   0.74254   0.33941   0.0
C59    C     0.77237   0.71369   0.66851   0.0
C60    C     0.72763   0.78631   0.33148   0.0
N61    N     0.93118   0.56254   0.58867   0.0
N62    N     0.56881   0.93746   0.41131   0.0
N63    N     0.94035   0.58130   0.40588   0.0
N64    N     0.55965   0.91870   0.59410   0.0
H65    H     0.86560   0.60360   0.77130   0.0
H66    H     0.63440   0.89640   0.22868   0.0
H67    H     0.89260   0.65890   0.23266   0.0
H68    H     0.60740   0.84110   0.76732   0.0
H69    H     0.69089   0.76255   0.77032   0.0
H70    H     0.80911   0.73745   0.22966   0.0
H71    H     0.78766   0.68888   0.78368   0.0
H72    H     0.71234   0.81112   0.21631   0.0
C73    C     0.88217   0.39491   0.14899   0.0
C74    C     0.61783   0.10509   0.85099   0.0
C75    C     0.89700   0.36454   0.85323   0.0
C76    C     0.60300   0.13546   0.14675   0.0
C77    C     0.86104   0.34984   0.00348   0.0
C78    C     0.63896   0.15016   0.99650   0.0
C79    C     0.80748   0.29376   0.00793   0.0
C80    C     0.69252   0.20624   0.99206   0.0
C81    C     0.71489   0.24254   0.16057   0.0
C82    C     0.78511   0.25746   0.83941   0.0
C83    C     0.77237   0.28631   0.16851   0.0
C84    C     0.72763   0.21369   0.83148   0.0
N85    N     0.93118   0.43746   0.08867   0.0
N86    N     0.56881   0.06254   0.91131   0.0
N87    N     0.94035   0.41870   0.90588   0.0
N88    N     0.55965   0.08130   0.09410   0.0
H89    H     0.86560   0.39640   0.27130   0.0
H90    H     0.63440   0.10360   0.72868   0.0
H91    H     0.89260   0.34110   0.73266   0.0
H92    H     0.60740   0.15890   0.26732   0.0
H93    H     0.69089   0.23745   0.27032   0.0
H94    H     0.80911   0.26255   0.72966   0.0
H95    H     0.78766   0.31112   0.28368   0.0
H96    H     0.71234   0.18888   0.71631   0.0
Co97   Co    1.00000   0.48485   0.75000   0.0
Co98   Co    1.00000   0.51515   0.25000   0.0
Co99   Co    0.50000   0.98485   0.75000   0.0
Co100  Co    0.50000   0.01515   0.25000   0.0
loop_
_geom_bond_atom_site_label_1
_geom_bond_atom_site_label_2
_geom_bond_distance
_geom_bond_site_symmetry_2
_ccdc_geom_bond_type
C1     C5      1.360   .     S
C1     N13     1.360   .     D
C1     H17     0.950   .     S
C2     C6      1.360   .     S
C2     N14     1.360   .     D
C2     H18     0.950   .     S
C3     C5      1.360   .     S
C3     N15     1.360   .     D
C3     H19     0.950   .     S
C4     C6      1.360   .     S
C4     N16     1.360   .     D
C4     H20     0.950   .     S
C5     C7      1.500   .     D
C6     C8      1.500   .     D
C7     C10     1.390   .     S
C7     C11     1.390   .     S
C8     C9      1.390   .     S
C8     C12     1.390   .     S
C9     C11     1.390   .     D
C9     H21     0.950   .     S
C10    C12     1.390   .     D
C10    H22     0.950   .     S
C11    H23     0.950   .     S
C12    H24     0.950   .     S
N13    N15     1.360   .     S
N13    Co99    2.213   1_545 S
N14    N16     1.360   .     S
N14    Co98    2.213   1_455 S
N15    Co100   2.113   .     S
N16    Co97    2.113   1_455 S
C25    C29     1.360   .     S
C25    N37     1.360   .     D
C25    H41     0.950   .     S
C26    C30     1.360   .     S
C26    N38     1.360   .     D
C26    H42     0.950   .     S
C27    C29     1.360   1_556 S
C27    N39     1.360   .     D
C27    H43     0.950   .     S
C28    C30     1.360   1_554 S
C28    N40     1.360   .     D
C28    H44     0.950   .     S
C29    C27     1.360   1_554 S
C29    C31     1.500   .     D
C30    C28     1.360   1_556 S
C30    C32     1.500   .     D
C31    C34     1.390   1_554 S
C31    C35     1.390   .     S
C32    C33     1.390   1_556 S
C32    C36     1.390   .     S
C33    C32     1.390   1_554 S
C33    C35     1.390   .     D
C33    H45     0.950   .     S
C34    C31     1.390   1_556 S
C34    C36     1.390   .     D
C34    H46     0.950   .     S
C35    H47     0.950   .     S
C36    H48     0.950   .     S
N37    N39     1.360   1_554 S
N37    Co100   2.213   1_565 S
N38    N40     1.360   1_556 S
N38    Co97    2.213   1_455 S
N39    N37     1.360   1_556 S
N39    Co99    2.113   .     S
N40    N38     1.360   1_554 S
N40    Co98    2.113   1_455 S
C49    C53     1.360   .     S
C49    N61     1.360   .     D
C49    H65     0.950   .     S
C50    C54     1.360   .     S
C50    N62     1.360   .     D
C50    H66     0.950   .     S
C51    C53     1.360   .     S
C51    N63     1.360   .     D
C51    H67     0.950   .     S
C52    C54     1.360   .     S
C52    N64     1.360   .     D
C52    H68     0.950   .     S
C53    C55     1.500   .     D
C54    C56     1.500   .     D
C55    C58     1.390   .     S
C55    C59     1.390   .     S
C56    C57     1.390   .     S
C56    C60     1.390   .     S
C57    C59     1.390   .     D
C57    H69     0.950   .     S
C58    C60     1.390   .     D
C58    H70     0.950   .     S
C59    H71     0.950   .     S
C60    H72     0.950   .     S
N61    N63     1.360   .     S
N61    Co97    2.213   .     S
N62    N64     1.360   .     S
N62    Co100   2.213   1_565 S
N63    Co98    2.113   .     S
N64    Co99    2.113   .     S
C73    C77     1.360   .     S
C73    N85     1.360   .     D
C73    H89     0.950   .     S
C74    C78     1.360   .     S
C74    N86     1.360   .     D
C74    H90     0.950   .     S
C75    C77     1.360   1_556 S
C75    N87     1.360   .     D
C75    H91     0.950   .     S
C76    C78     1.360   1_554 S
C76    N88     1.360   .     D
C76    H92     0.950   .     S
C77    C75     1.360   1_554 S
C77    C79     1.500   .     D
C78    C76     1.360   1_556 S
C78    C80     1.500   .     D
C79    C82     1.390   1_554 S
C79    C83     1.390   .     S
C80    C81     1.390   1_556 S
C80    C84     1.390   .     S
C81    C80     1.390   1_554 S
C81    C83     1.390   .     D
C81    H93     0.950   .     S
C82    C79     1.390   1_556 S
C82    C84     1.390   .     D
C82    H94     0.950   .     S
C83    H95     0.950   .     S
C84    H96     0.950   .     S
N85    N87     1.360   1_554 S
N85    Co98    2.213   .     S
N86    N88     1.360   1_556 S
N86    Co99    2.213   1_545 S
N87    N85     1.360   1_556 S
N87    Co97    2.113   .     S
N88    N86     1.360   1_554 S
N88    Co100   2.113   .     S
Co97   N16     2.113   1_655 S
Co97   N38     2.213   1_655 S
Co98   N14     2.213   1_655 S
Co98   N40     2.113   1_655 S
Co99   N86     2.213   1_565 S
Co99   N13     2.213   1_565 S
Co100  N62     2.213   1_545 S
Co100  N37     2.213   1_545 S
